Circuit: * C:\users\crossover\My Documents\Cambridge\Work\Projects\1A2_IEP\LTSpice_Exercises\190227_IEP_Ex1.asc

Direct Newton iteration for .op point succeeded.

Date: Wed Feb 27 18:37:32 2019
Total elapsed time: 0.056 seconds.

tnom = 27
temp = 27
method = trap
totiter = 3
traniter = 0
tranpoints = 0
accept = 0
rejected = 0
matrix size = 3
fillins = 0
solver = Normal
Matrix Compiler1: 50 bytes object code size
Matrix Compiler2: 175 bytes object code size
